/*--------------------------------*- C++ -*----------------------------------*\
  =========                 |
  \\      /  F ield         | OpenFOAM: The Open Source CFD Toolbox
   \\    /   O peration     | Website:  https://openfoam.org
    \\  /    A nd           | Version:  9
     \\/     M anipulation  |
\*---------------------------------------------------------------------------*/
FoamFile
{
    format      ascii;
    class       dictionary;
    location    "system";
    object      setFieldsDict;
}
// * * * * * * * * * * * * * * * * * * * * * * * * * * * * * * * * * * * * * //



xminFluid  -500;
xmaxFluid  500;
yminFluid  0;
ymaxFluid  500;
zminFluid  0;
zmaxFluid  500;




defaultFieldValues
(
    volScalarFieldValue T 290
);

regions
(
    boxToCell
    {
        box ($xminFluid $yminFluid $zminFluid) ($xmaxFluid $ymaxFluid $zmaxFluid);
        fieldValues
        (
            volScalarFieldValue T 300
        );
    }
);



// ************************************************************************* //
