/*--------------------------------*- C++ -*----------------------------------*\
  =========                 |
  \\      /  F ield         | OpenFOAM: The Open Source CFD Toolbox
   \\    /   O peration     | Website:  https://openfoam.org
    \\  /    A nd           | Version:  9
     \\/     M anipulation  |
\*---------------------------------------------------------------------------*/
FoamFile
{
    format      ascii;
    class       featureEdgeMesh;
    location    "constant/geometry";
    object      stratisformClouds.eMesh;
}
// * * * * * * * * * * * * * * * * * * * * * * * * * * * * * * * * * * * * * //


// points:

162
(
(-500 0 -500)
(-500 53.3935 -500)
(500 54.803 -500)
(500 0 -500)
(-500 0 60)
(500 0 60)
(500 63.5922 60)
(-214.286 170.604 -300)
(-214.286 232.859 -260)
(-214.286 169.747 -180)
(-71.4286 306.467 -180)
(-71.4286 173.084 -380)
(-4.62023e-13 500 -180)
(-4.62023e-13 394.498 -140)
(71.4286 391.498 -180)
(500 0 60)
(-500 0 60)
(-500 53.3935 60)
(500 63.5922 60)
(500 0 480)
(-500 0 480)
(500 63.5922 480)
(-500 53.3935 480)
(-71.4286 129.759 -300)
(71.4286 90.5776 -380)
(-357.143 81.5225 -260)
(-500 53.3935 60)
(-214.286 161.548 -140)
(-4.62023e-13 76.1392 60)
(71.4286 75.4663 -420)
(-142.857 125.746 -340)
(-142.857 150.134 -300)
(-142.857 173.974 -220)
(-142.857 163.267 -180)
(-142.857 142.943 -140)
(-142.857 137.463 -100)
(-71.4286 168.253 -100)
(-71.4286 228.523 -140)
(-71.4286 159.116 -260)
(-71.4286 152.976 -340)
(71.4286 287.605 -100)
(71.4286 353.949 -140)
(71.4286 252.898 -260)
(142.857 239.572 -260)
(142.857 217.014 -220)
(142.857 251.073 -180)
(142.857 290.863 -140)
(285.714 184.008 -220)
(-285.714 158.539 -260)
(-285.714 119.091 -300)
(-357.143 76.3241 -300)
(-285.714 53.3935 -500)
(-357.143 53.3935 -500)
(-428.571 53.3935 -500)
(-214.286 53.3935 -500)
(-142.857 53.8013 -500)
(-71.4286 54.803 -500)
(-4.62023e-13 56.0524 -500)
(71.4286 57.2209 -500)
(142.857 59.0486 -500)
(214.286 61.0723 -500)
(285.714 61.575 -500)
(357.143 59.9601 -500)
(428.571 57.0612 -500)
(-500 53.4226 20)
(-500 53.7289 -20)
(-500 54.167 -60)
(-500 54.524 -100)
(-500 54.6594 -140)
(-500 54.524 -180)
(-500 54.167 -220)
(-500 53.7289 -260)
(-500 53.4226 -300)
(-500 53.3935 -340)
(-500 53.3935 -380)
(-500 53.3935 -420)
(-500 53.3935 -460)
(500 60.0963 -460)
(500 69.3641 -420)
(500 79.2526 -380)
(500 86.7527 -340)
(500 90.2917 -300)
(500 93.5261 -260)
(500 97.4 -220)
(500 98.9286 -180)
(500 95.3435 -140)
(500 86.8641 -100)
(500 79.2626 -60)
(500 73.961 -20)
(500 68.5122 20)
(-214.286 206.262 -220)
(-214.286 166.889 -100)
(428.571 68.2235 60)
(357.143 72.5845 60)
(285.714 76.1392 60)
(214.286 78.4577 60)
(142.857 79.2626 60)
(71.4286 78.4577 60)
(-214.286 99.3532 -340)
(-142.857 128.052 -380)
(-142.857 193.02 -260)
(-71.4286 240.253 -220)
(-4.62023e-13 129.622 -380)
(-4.62023e-13 374.532 -220)
(142.857 224.079 -300)
(71.4286 308.356 -220)
(142.857 277 -100)
(214.286 239.542 -100)
(214.286 248.392 -140)
(214.286 195.171 -300)
(285.714 163.298 -300)
(214.286 198.313 -260)
(285.714 185.595 -260)
(214.286 223.561 -180)
(285.714 180.693 -100)
(357.143 165.27 -260)
(-428.571 53.8013 60)
(-357.143 55.847 60)
(-285.714 59.2761 60)
(-214.286 63.5922 60)
(-142.857 68.2235 60)
(-71.4286 72.5845 60)
(-5.54428e-13 76.1392 60)
(71.4286 78.4577 60)
(142.857 79.2626 60)
(214.286 78.4577 60)
(285.714 76.1392 60)
(357.143 72.5845 60)
(428.571 68.2235 60)
(428.571 68.2235 480)
(357.143 72.5845 480)
(285.714 76.1392 480)
(214.286 78.4577 480)
(142.857 79.2626 480)
(71.4286 78.4577 480)
(-5.54428e-13 76.1392 480)
(-71.4286 72.5845 480)
(-142.857 68.2235 480)
(-214.286 63.5922 480)
(-285.714 59.2761 480)
(-357.143 55.847 480)
(-428.571 53.8013 480)
(-357.143 80.5596 -220)
(-71.4286 58.0398 -460)
(-4.62023e-13 60.3161 -460)
(-285.714 116.458 -140)
(-428.571 53.8013 60)
(-71.4286 72.5845 60)
(-142.857 68.2235 60)
(-214.286 63.5922 60)
(-285.714 59.2761 60)
(-357.143 55.847 60)
(-4.62023e-13 85.7689 -420)
(-142.857 110.073 -60)
(-71.4286 123.547 -60)
(-4.62023e-13 124.253 -340)
(-4.62023e-13 257.003 -100)
(-4.62023e-13 112.231 -20)
(-71.4286 92.1501 -20)
(71.4286 121.848 -340)
(-4.62023e-13 142.224 -300)
(214.286 196.081 -220)
)


// edges:

179
(
(48 25)
(49 50)
(51 52)
(0 1)
(1 53)
(53 52)
(51 54)
(54 55)
(55 56)
(56 57)
(57 58)
(58 59)
(59 60)
(60 61)
(61 62)
(62 63)
(63 2)
(3 0)
(2 3)
(0 4)
(4 26)
(26 64)
(64 65)
(65 66)
(66 67)
(67 68)
(68 69)
(69 70)
(70 71)
(71 72)
(72 73)
(73 74)
(74 75)
(75 76)
(76 1)
(3 5)
(5 4)
(2 77)
(77 78)
(78 79)
(79 80)
(80 81)
(81 82)
(82 83)
(83 84)
(84 85)
(85 86)
(86 87)
(87 88)
(88 89)
(6 5)
(89 6)
(48 8)
(8 7)
(90 8)
(9 90)
(27 9)
(91 27)
(6 92)
(92 93)
(93 94)
(94 95)
(95 96)
(96 97)
(97 28)
(98 99)
(7 30)
(8 100)
(37 35)
(10 34)
(10 33)
(101 32)
(38 100)
(39 31)
(39 11)
(11 99)
(11 102)
(10 12)
(12 103)
(13 12)
(36 13)
(40 41)
(41 13)
(41 14)
(14 12)
(42 103)
(29 102)
(42 104)
(105 43)
(14 44)
(14 45)
(41 46)
(40 106)
(107 106)
(108 46)
(109 104)
(109 110)
(111 112)
(113 47)
(107 114)
(115 112)
(15 16)
(16 17)
(17 116)
(116 117)
(117 118)
(118 119)
(119 120)
(120 121)
(121 122)
(122 123)
(123 124)
(124 125)
(125 126)
(126 127)
(127 128)
(18 15)
(128 18)
(19 20)
(20 16)
(15 19)
(19 21)
(21 129)
(129 130)
(130 131)
(131 132)
(132 133)
(133 134)
(134 135)
(135 136)
(136 137)
(137 138)
(138 139)
(139 140)
(140 141)
(141 22)
(22 20)
(18 21)
(17 22)
(28 26)
(25 142)
(49 25)
(143 144)
(145 27)
(26 146)
(28 147)
(147 148)
(148 149)
(149 150)
(150 151)
(151 146)
(152 29)
(98 30)
(31 30)
(33 32)
(27 34)
(34 33)
(35 34)
(153 35)
(154 36)
(36 37)
(37 34)
(101 33)
(38 32)
(23 31)
(39 30)
(23 155)
(36 156)
(157 158)
(159 160)
(24 155)
(24 29)
(42 43)
(105 44)
(45 44)
(41 45)
(40 46)
(161 44)
(161 47)
)

// * * * * * * * * * * * * * * * * * * * * * * * * * * * * * * * * * * * * * //


// ************************************************************************* //
