/*--------------------------------*- C++ -*----------------------------------*\
  =========                 |
  \\      /  F ield         | OpenFOAM: The Open Source CFD Toolbox
   \\    /   O peration     | Website:  https://openfoam.org
    \\  /    A nd           | Version:  9
     \\/     M anipulation  |
\*---------------------------------------------------------------------------*/
FoamFile
{
    format      ascii;
    class       featureEdgeMesh;
    location    "constant/geometry";
    object      stratisformClouds.eMesh;
}
// * * * * * * * * * * * * * * * * * * * * * * * * * * * * * * * * * * * * * //


// points:

1002
(
(-338.583 -37.671 -370.079)
(-307.087 -24.441 -370.079)
(-338.583 -40.7241 -354.331)
(-259.843 -37.8463 -338.583)
(-228.346 -38.9864 -338.583)
(-212.598 -63.5486 -212.598)
(-23.622 -48.4201 259.843)
(-70.8661 -57.1494 338.583)
(-39.3701 -44.4872 338.583)
(-102.362 -41.3438 354.331)
(7.87402 -34.935 385.827)
(-7.87402 -20.9228 385.827)
(-149.606 -23.8564 385.827)
(-23.622 -8.3057 401.575)
(-55.1181 -1.86335 417.323)
(-118.11 -2.01273 464.567)
(86.6142 -16.4374 480.315)
(-118.11 -8.11837 480.315)
(-70.8661 12.2992 496.063)
(70.8661 57.1899 527.559)
(7.87402 92.9552 527.559)
(7.87402 95.3267 543.307)
(55.1181 74.1465 543.307)
(-55.1181 68.7775 574.803)
(-228.346 -21.5293 590.551)
(-23.622 -55.1849 228.346)
(-23.622 -48.0667 338.583)
(-23.622 -46.9558 354.331)
(-70.8661 -58.3841 354.331)
(-86.6142 -51.0131 370.079)
(-70.8661 -55.8992 370.079)
(55.1181 -78.0812 385.827)
(23.622 -60.2123 401.575)
(23.622 -56.0039 417.323)
(-39.3701 1.27893 448.819)
(-55.1181 -12.0325 448.819)
(133.858 -52.373 480.315)
(118.11 -49.5371 480.315)
(-7.87402 20.503 480.315)
(-102.362 -24.6359 496.063)
(-133.858 -24.7299 496.063)
(-1000 904.692 -1000)
(1000 904.692 -1000)
(1000 -95.3077 -1000)
(-1000 -95.3077 -1000)
(-1000 -95.3077 1000)
(1000 -95.3077 1000)
(1000 904.692 1000)
(-1000 904.692 1000)
(1000 -95.3077 1000)
(1000 904.692 -1000)
(-1000 -95.3077 -1000)
(1000 -95.3077 -496.063)
(-1000 -95.3077 -496.063)
(-275.591 -41.8237 -354.331)
(-275.591 -37.5931 -338.583)
(-23.622 -53.1624 244.094)
(-7.87402 -52.3602 244.094)
(-7.87402 -54.6733 259.843)
(-39.3701 -55.5404 259.843)
(-23.622 -52.4426 275.591)
(-39.3701 -48.0198 322.835)
(-86.6142 -54.1915 338.583)
(-39.3701 -47.0037 354.331)
(-23.622 -38.1342 370.079)
(-23.622 -20.9429 385.827)
(-39.3701 -14.5022 401.575)
(-7.87402 -16.7093 401.575)
(-23.622 -5.75841 417.323)
(-39.3701 -2.492 417.323)
(-70.8661 -12.5654 417.323)
(-118.11 -9.52403 433.071)
(-55.1181 -4.23128 433.071)
(-23.622 2.43843 448.819)
(-86.6142 -9.44144 464.567)
(7.87402 27.2813 480.315)
(-55.1181 0.851121 480.315)
(-70.8661 -3.6805 480.315)
(-86.6142 -12.0448 480.315)
(-102.362 -11.0936 480.315)
(-149.606 -17.1453 480.315)
(-212.598 -59.7487 480.315)
(-212.598 -50.6755 496.063)
(-1000 -95.3077 496.063)
(149.606 -52.5747 496.063)
(1000 -95.3077 496.063)
(118.11 -37.9669 496.063)
(-86.6142 -9.10317 496.063)
(55.1181 69.6106 527.559)
(-39.3701 49.7883 543.307)
(-23.622 54.845 559.055)
(-39.3701 55.589 559.055)
(-55.1181 51.8378 559.055)
(-39.3701 62.1305 574.803)
(-23.622 49.5397 574.803)
(1000 -95.3077 1000)
(984.252 -95.3077 -496.063)
(968.504 -95.3077 -496.063)
(952.756 -95.3077 -496.063)
(937.008 -95.3077 -496.063)
(921.26 -95.3077 -496.063)
(905.512 -95.3077 -496.063)
(889.764 -95.3014 -496.063)
(874.016 -95.3077 -496.063)
(858.268 -95.3077 -496.063)
(842.52 -95.3077 -496.063)
(826.772 -95.3077 -496.063)
(811.024 -95.3077 -496.063)
(795.276 -95.3077 -496.063)
(779.528 -95.3077 -496.063)
(763.78 -95.2887 -496.063)
(748.031 -95.2621 -496.063)
(732.283 -95.2587 -496.063)
(716.535 -95.2081 -496.063)
(700.787 -95.0932 -496.063)
(685.039 -94.9479 -496.063)
(669.291 -94.7407 -496.063)
(653.543 -94.4735 -496.063)
(637.795 -94.1635 -496.063)
(622.047 -94.3078 -496.063)
(606.299 -94.5395 -496.063)
(590.551 -94.6506 -496.063)
(574.803 -94.6906 -496.063)
(559.055 -94.7132 -496.063)
(543.307 -94.6748 -496.063)
(527.559 -94.6236 -496.063)
(511.811 -94.6936 -496.063)
(496.063 -94.5536 -496.063)
(480.315 -94.2159 -496.063)
(464.567 -93.9423 -496.063)
(448.819 -93.7383 -496.063)
(433.071 -92.7435 -496.063)
(417.323 -91.931 -496.063)
(401.575 -91.7684 -496.063)
(385.827 -92.6748 -496.063)
(370.079 -93.7428 -496.063)
(354.331 -93.9502 -496.063)
(338.583 -94.3095 -496.063)
(322.835 -94.135 -496.063)
(307.087 -93.3424 -496.063)
(291.339 -93.7119 -496.063)
(275.591 -94.6858 -496.063)
(259.843 -95.0523 -496.063)
(244.094 -95.0852 -496.063)
(228.346 -94.9091 -496.063)
(212.598 -94.5972 -496.063)
(196.85 -94.293 -496.063)
(181.102 -94.2258 -496.063)
(165.354 -93.954 -496.063)
(149.606 -93.5485 -496.063)
(133.858 -93.45 -496.063)
(118.11 -93.5952 -496.063)
(102.362 -93.3447 -496.063)
(86.6142 -92.7101 -496.063)
(70.8661 -92.4962 -496.063)
(55.1181 -92.4434 -496.063)
(39.3701 -92.1679 -496.063)
(23.622 -93.0024 -496.063)
(7.87402 -93.9878 -496.063)
(-7.87402 -93.992 -496.063)
(-23.622 -93.9722 -496.063)
(-39.3701 -94.1997 -496.063)
(-55.1181 -94.1926 -496.063)
(-70.8661 -94.0648 -496.063)
(-86.6142 -94.3733 -496.063)
(-102.362 -94.0964 -496.063)
(-118.11 -92.7033 -496.063)
(-133.858 -90.8028 -496.063)
(-149.606 -89.5147 -496.063)
(-165.354 -87.0638 -496.063)
(-181.102 -85.3928 -496.063)
(-196.85 -87.0788 -496.063)
(-212.598 -89.9217 -496.063)
(-228.346 -90.1233 -496.063)
(-244.094 -89.7342 -496.063)
(-259.843 -86.6074 -496.063)
(-275.591 -78.9223 -496.063)
(-291.339 -72.1261 -496.063)
(-307.087 -71.0457 -496.063)
(-322.835 -71.5202 -496.063)
(-338.583 -75.7617 -496.063)
(-354.331 -80.3502 -496.063)
(-370.079 -82.2654 -496.063)
(-385.827 -85.1536 -496.063)
(-401.575 -88.2694 -496.063)
(-417.323 -90.3369 -496.063)
(-433.071 -92.3136 -496.063)
(-448.819 -93.1986 -496.063)
(-464.567 -93.7505 -496.063)
(-480.315 -94.3899 -496.063)
(-496.063 -94.8444 -496.063)
(-511.811 -94.9942 -496.063)
(-527.559 -94.9408 -496.063)
(-543.307 -94.8432 -496.063)
(-559.055 -94.53 -496.063)
(-574.803 -94.1947 -496.063)
(-590.551 -93.9685 -496.063)
(-606.299 -93.771 -496.063)
(-622.047 -92.8549 -496.063)
(-637.795 -91.1098 -496.063)
(-653.543 -89.6507 -496.063)
(-669.291 -89.0057 -496.063)
(-685.039 -89.0263 -496.063)
(-700.787 -88.6539 -496.063)
(-716.535 -88.156 -496.063)
(-732.283 -87.8875 -496.063)
(-748.031 -87.7675 -496.063)
(-763.78 -88.5605 -496.063)
(-779.528 -90.1557 -496.063)
(-795.276 -91.8137 -496.063)
(-811.024 -93.2081 -496.063)
(-826.772 -94.1185 -496.063)
(-842.52 -94.5515 -496.063)
(-858.268 -94.7803 -496.063)
(-874.016 -94.9689 -496.063)
(-889.764 -95.0796 -496.063)
(-905.512 -95.1443 -496.063)
(-921.26 -95.2049 -496.063)
(-937.008 -95.2492 -496.063)
(-952.756 -95.279 -496.063)
(-968.504 -95.2994 -496.063)
(-984.252 -95.3077 -496.063)
(102.362 -35.7745 480.315)
(70.8661 -17.3828 480.315)
(55.1181 -14.9821 480.315)
(39.3701 -2.67006 480.315)
(23.622 13.2317 480.315)
(-23.622 19.8402 480.315)
(-39.3701 14.6598 480.315)
(-133.858 -12.3694 480.315)
(-165.354 -24.4973 480.315)
(-181.102 -38.3026 480.315)
(-196.85 -50.9619 480.315)
(-984.252 -95.3077 496.063)
(-968.504 -95.3077 496.063)
(-952.756 -95.3077 496.063)
(-937.008 -95.3077 496.063)
(-921.26 -95.3077 496.063)
(-905.512 -95.3077 496.063)
(-889.764 -95.3003 496.063)
(-874.016 -95.2553 496.063)
(-858.268 -95.1846 496.063)
(-842.52 -95.1425 496.063)
(-826.772 -95.0901 496.063)
(-811.024 -94.9741 496.063)
(-795.276 -94.8164 496.063)
(-779.528 -94.7084 496.063)
(-763.78 -94.5362 496.063)
(-748.031 -94.2616 496.063)
(-732.283 -94.0337 496.063)
(-716.535 -93.6101 496.063)
(-700.787 -93.2208 496.063)
(-685.039 -93.1927 496.063)
(-669.291 -93.2667 496.063)
(-653.543 -93.566 496.063)
(-637.795 -93.6165 496.063)
(-622.047 -93.4142 496.063)
(-606.299 -93.9012 496.063)
(-590.551 -94.2354 496.063)
(-574.803 -93.9995 496.063)
(-559.055 -93.8037 496.063)
(-543.307 -93.6229 496.063)
(-527.559 -92.982 496.063)
(-511.811 -91.9862 496.063)
(-496.063 -91.4129 496.063)
(-480.315 -91.3345 496.063)
(-464.567 -89.7007 496.063)
(-448.819 -88.1431 496.063)
(-433.071 -88.4092 496.063)
(-417.323 -89.1048 496.063)
(-401.575 -88.8446 496.063)
(-385.827 -87.2614 496.063)
(-370.079 -86.9965 496.063)
(-354.331 -86.5791 496.063)
(-338.583 -85.3584 496.063)
(-322.835 -85.5061 496.063)
(-307.087 -85.0282 496.063)
(-291.339 -82.0693 496.063)
(-275.591 -79.5478 496.063)
(-259.843 -76.1722 496.063)
(-244.094 -68.9701 496.063)
(-228.346 -59.104 496.063)
(165.354 -55.0038 496.063)
(181.102 -60.3687 496.063)
(196.85 -71.3607 496.063)
(212.598 -81.7264 496.063)
(228.346 -88.88 496.063)
(244.094 -92.4863 496.063)
(259.843 -94.0927 496.063)
(275.591 -94.796 496.063)
(291.339 -95.1334 496.063)
(307.087 -95.263 496.063)
(322.835 -95.3077 496.063)
(338.583 -95.3077 496.063)
(354.331 -95.3077 496.063)
(370.079 -95.3077 496.063)
(385.827 -95.3077 496.063)
(401.575 -95.3077 496.063)
(417.323 -95.3077 496.063)
(433.071 -95.3077 496.063)
(448.819 -95.3077 496.063)
(464.567 -95.3077 496.063)
(480.315 -95.3077 496.063)
(496.063 -95.3077 496.063)
(511.811 -95.3077 496.063)
(527.559 -95.3077 496.063)
(543.307 -95.3077 496.063)
(559.055 -95.3077 496.063)
(574.803 -95.3077 496.063)
(590.551 -95.3077 496.063)
(606.299 -95.3077 496.063)
(622.047 -95.3077 496.063)
(637.795 -95.3077 496.063)
(653.543 -95.3077 496.063)
(669.291 -95.3077 496.063)
(685.039 -95.3077 496.063)
(700.787 -95.3077 496.063)
(716.535 -95.3077 496.063)
(732.283 -95.3077 496.063)
(748.031 -95.3077 496.063)
(763.78 -95.3077 496.063)
(779.528 -95.3077 496.063)
(795.276 -95.3077 496.063)
(811.024 -95.3077 496.063)
(826.772 -95.3077 496.063)
(842.52 -95.3077 496.063)
(858.268 -95.3077 496.063)
(874.016 -95.3077 496.063)
(889.764 -95.3077 496.063)
(905.512 -95.3077 496.063)
(921.26 -95.3077 496.063)
(937.008 -95.3077 496.063)
(952.756 -95.3077 496.063)
(968.504 -95.3077 496.063)
(984.252 -95.3077 496.063)
(-1000 -95.3077 133.858)
(-1000 -95.3077 149.606)
(1000 -95.3077 149.606)
(1000 -95.3077 133.858)
(1000 -95.3077 118.11)
(1000 -95.3077 102.362)
(1000 -95.3077 86.6142)
(1000 -95.3077 70.8661)
(1000 -95.3077 55.1181)
(1000 -95.3077 39.3701)
(1000 -95.3077 23.622)
(1000 -95.3077 7.87402)
(1000 -95.3077 -7.87402)
(1000 -95.3077 -23.622)
(1000 -95.3077 -39.3701)
(1000 -95.3077 -55.1181)
(1000 -95.3077 -70.8661)
(1000 -95.3077 -86.6142)
(1000 -95.3077 -102.362)
(1000 -95.3077 -118.11)
(1000 -95.3077 -133.858)
(1000 -95.3077 -149.606)
(1000 -95.3077 -165.354)
(1000 -95.3077 -181.102)
(1000 -95.3077 -196.85)
(1000 -95.3077 -212.598)
(1000 -95.3077 -228.346)
(1000 -95.3077 -244.094)
(1000 -95.3077 -259.843)
(1000 -95.3077 -275.591)
(1000 -95.3077 -291.339)
(1000 -95.3077 -307.087)
(1000 -95.3077 -322.835)
(1000 -95.3077 -338.583)
(1000 -95.3077 -354.331)
(1000 -95.3077 -370.079)
(1000 -95.3077 -385.827)
(1000 -95.3077 -401.575)
(1000 -95.3077 -417.323)
(1000 -95.3077 -433.071)
(1000 -95.3077 -448.819)
(1000 -95.3077 -464.567)
(1000 -95.3077 -480.315)
(-1000 -95.3077 -480.315)
(-1000 -95.3077 -464.567)
(-1000 -95.3077 -448.819)
(-1000 -95.3077 -433.071)
(-1000 -95.3077 -417.323)
(-1000 -95.3077 -401.575)
(-1000 -95.3077 -385.827)
(-1000 -95.3077 -370.079)
(-1000 -95.3077 -354.331)
(-1000 -95.3077 -338.583)
(-1000 -95.3077 -322.835)
(-1000 -95.3077 -307.087)
(-1000 -95.3077 -291.339)
(-1000 -95.3077 -275.591)
(-1000 -95.3077 -259.843)
(-1000 -95.3077 -244.094)
(-1000 -95.3077 -228.346)
(-1000 -95.3077 -212.598)
(-1000 -95.3077 -196.85)
(-1000 -95.3077 -181.102)
(-1000 -95.3077 -165.354)
(-1000 -95.3077 -149.606)
(-1000 -95.3077 -133.858)
(-1000 -95.3077 -118.11)
(-1000 -95.3077 -102.362)
(-1000 -95.3077 -86.6142)
(-1000 -95.3077 -70.8661)
(-1000 -95.3077 -55.1181)
(-1000 -95.3077 -39.3701)
(-1000 -95.3077 -23.622)
(-1000 -95.3077 -7.87402)
(-1000 -95.3077 7.87402)
(-1000 -95.3077 23.622)
(-1000 -95.3077 39.3701)
(-1000 -95.3077 55.1181)
(-1000 -95.3077 70.8661)
(-1000 -95.3077 86.6142)
(-1000 -95.3077 102.362)
(-1000 -95.3077 118.11)
(1000 -95.3077 165.354)
(-1000 -95.3077 165.354)
(1000 -95.3077 181.102)
(1000 -95.3077 196.85)
(-1000 -95.3077 181.102)
(-1000 -95.3077 196.85)
(1000 -95.3077 212.598)
(1000 -95.3077 228.346)
(-1000 -95.3077 212.598)
(-1000 -95.3077 228.346)
(1000 -95.3077 244.094)
(1000 -95.3077 259.843)
(-1000 -95.3077 244.094)
(-1000 -95.3077 259.843)
(1000 -95.3077 275.591)
(1000 -95.3077 291.339)
(-1000 -95.3077 275.591)
(-1000 -95.3077 291.339)
(1000 -95.3077 307.087)
(1000 -95.3077 322.835)
(-1000 -95.3077 307.087)
(-1000 -95.3077 322.835)
(1000 -95.3077 338.583)
(1000 -95.3077 354.331)
(-1000 -95.3077 338.583)
(-1000 -95.3077 354.331)
(1000 -95.3077 370.079)
(1000 -95.3077 385.827)
(-1000 -95.3077 370.079)
(-1000 -95.3077 385.827)
(1000 -95.3077 401.575)
(1000 -95.3077 417.323)
(-1000 -95.3077 401.575)
(-1000 -95.3077 417.323)
(1000 -95.3077 433.071)
(1000 -95.3077 448.819)
(-1000 -95.3077 433.071)
(-1000 -95.3077 448.819)
(1000 -95.3077 464.567)
(1000 -95.3077 480.315)
(-1000 -95.3077 464.567)
(-1000 -95.3077 480.315)
(-590.551 -95.3077 -1000)
(-606.299 -95.3077 -1000)
(-574.803 -95.3077 -1000)
(-559.055 -95.3077 -1000)
(-543.307 -95.3077 -1000)
(-527.559 -95.3077 -1000)
(-511.811 -95.3077 -1000)
(-496.063 -95.3077 -1000)
(-480.315 -95.3077 -1000)
(-464.567 -95.3077 -1000)
(-448.819 -95.3077 -1000)
(-433.071 -95.3077 -1000)
(-417.323 -95.3077 -1000)
(-401.575 -95.3077 -1000)
(-385.827 -95.3077 -1000)
(-370.079 -95.3077 -1000)
(-354.331 -95.3077 -1000)
(-338.583 -95.3077 -1000)
(-322.835 -95.3077 -1000)
(-307.087 -95.3077 -1000)
(-291.339 -95.3077 -1000)
(-275.591 -95.3077 -1000)
(-259.843 -95.3077 -1000)
(-244.094 -95.3077 -1000)
(-228.346 -95.3077 -1000)
(-212.598 -95.3077 -1000)
(-196.85 -95.3077 -1000)
(-181.102 -95.3077 -1000)
(-165.354 -95.3077 -1000)
(-149.606 -95.3077 -1000)
(-133.858 -95.3077 -1000)
(-118.11 -95.3077 -1000)
(-102.362 -95.3077 -1000)
(-86.6142 -95.3077 -1000)
(-70.8661 -95.3077 -1000)
(-55.1181 -95.3077 -1000)
(-39.3701 -95.3077 -1000)
(-23.622 -95.3077 -1000)
(-7.87402 -95.3077 -1000)
(7.87402 -95.3077 -1000)
(23.622 -95.3077 -1000)
(39.3701 -95.3077 -1000)
(55.1181 -95.3077 -1000)
(70.8661 -95.3077 -1000)
(86.6142 -95.3077 -1000)
(102.362 -95.3077 -1000)
(118.11 -95.3077 -1000)
(133.858 -95.3077 -1000)
(149.606 -95.3077 -1000)
(165.354 -95.3077 -1000)
(181.102 -95.3077 -1000)
(196.85 -95.3077 -1000)
(212.598 -95.3077 -1000)
(228.346 -95.3077 -1000)
(244.094 -95.3077 -1000)
(259.843 -95.3077 -1000)
(275.591 -95.3077 -1000)
(291.339 -95.3077 -1000)
(307.087 -95.3077 -1000)
(322.835 -95.3077 -1000)
(338.583 -95.3077 -1000)
(354.331 -95.3077 -1000)
(370.079 -95.3077 -1000)
(385.827 -95.3077 -1000)
(401.575 -95.3077 -1000)
(417.323 -95.3077 -1000)
(433.071 -95.3077 -1000)
(448.819 -95.3077 -1000)
(464.567 -95.3077 -1000)
(480.315 -95.3077 -1000)
(496.063 -95.3077 -1000)
(511.811 -95.3077 -1000)
(527.559 -95.3077 -1000)
(543.307 -95.3077 -1000)
(559.055 -95.3077 -1000)
(574.803 -95.3077 -1000)
(590.551 -95.3077 -1000)
(606.299 -95.3077 -1000)
(622.047 -95.3077 -1000)
(637.795 -95.3077 -1000)
(653.543 -95.3077 -1000)
(669.291 -95.3077 -1000)
(685.039 -95.3077 -1000)
(700.787 -95.3077 -1000)
(716.535 -95.3077 -1000)
(732.283 -95.3077 -1000)
(748.031 -95.3077 -1000)
(763.78 -95.3077 -1000)
(779.528 -95.3077 -1000)
(795.276 -95.3077 -1000)
(811.024 -95.3077 -1000)
(826.772 -95.3077 -1000)
(842.52 -95.3077 -1000)
(858.268 -95.3077 -1000)
(874.016 -95.3077 -1000)
(889.764 -95.3077 -1000)
(905.512 -95.3077 -1000)
(921.26 -95.3077 -1000)
(937.008 -95.3077 -1000)
(952.756 -95.3077 -1000)
(968.504 -95.3077 -1000)
(984.252 -95.3077 -1000)
(1000 -95.3077 -984.252)
(1000 -95.3077 -968.504)
(-622.047 -95.3077 -1000)
(-637.795 -95.3077 -1000)
(-653.543 -95.3077 -1000)
(-669.291 -95.3077 -1000)
(-685.039 -95.3077 -1000)
(-700.787 -95.3077 -1000)
(-716.535 -95.3077 -1000)
(-732.283 -95.3077 -1000)
(-748.031 -95.3077 -1000)
(-763.78 -95.3077 -1000)
(-779.528 -95.3077 -1000)
(-795.276 -95.3077 -1000)
(-811.024 -95.3077 -1000)
(-826.772 -95.3077 -1000)
(-842.52 -95.3077 -1000)
(-858.268 -95.3077 -1000)
(-874.016 -95.3077 -1000)
(-889.764 -95.3077 -1000)
(-905.512 -95.3077 -1000)
(-921.26 -95.3077 -1000)
(-937.008 -95.3077 -1000)
(-952.756 -95.3077 -1000)
(-968.504 -95.3077 -1000)
(-984.252 -95.3077 -1000)
(-1000 -95.3077 -984.252)
(1000 -95.3077 -952.756)
(1000 -95.3077 -937.008)
(-1000 -95.3077 -968.504)
(-1000 -95.3077 -952.756)
(1000 -95.3077 -921.26)
(1000 -95.3077 -905.512)
(-1000 -95.3077 -937.008)
(-1000 -95.3077 -921.26)
(1000 -95.3077 -889.764)
(1000 -95.3077 -874.016)
(-1000 -95.3077 -905.512)
(-1000 -95.3077 -889.764)
(1000 -95.3077 -858.268)
(1000 -95.3077 -842.52)
(-1000 -95.3077 -874.016)
(-1000 -95.3077 -858.268)
(1000 -95.3077 -826.772)
(1000 -95.3077 -811.024)
(-1000 -95.3077 -842.52)
(-1000 -95.3077 -826.772)
(1000 -95.3077 -795.276)
(1000 -95.3077 -779.528)
(-1000 -95.3077 -811.024)
(-1000 -95.3077 -795.276)
(1000 -95.3077 -763.78)
(1000 -95.3077 -748.031)
(-1000 -95.3077 -779.528)
(-1000 -95.3077 -763.78)
(1000 -95.3077 -732.283)
(1000 -95.3077 -716.535)
(-1000 -95.3077 -748.031)
(-1000 -95.3077 -732.283)
(1000 -95.3077 -700.787)
(1000 -95.3077 -685.039)
(-1000 -95.3077 -716.535)
(-1000 -95.3077 -700.787)
(1000 -95.3077 -669.291)
(1000 -95.3077 -653.543)
(-1000 -95.3077 -685.039)
(-1000 -95.3077 -669.291)
(1000 -95.3077 -637.795)
(1000 -95.3077 -622.047)
(-1000 -95.3077 -653.543)
(-1000 -95.3077 -637.795)
(1000 -95.3077 -606.299)
(1000 -95.3077 -590.551)
(-1000 -95.3077 -622.047)
(-1000 -95.3077 -606.299)
(1000 -95.3077 -574.803)
(1000 -95.3077 -559.055)
(-1000 -95.3077 -590.551)
(-1000 -95.3077 -574.803)
(1000 -95.3077 -543.307)
(1000 -95.3077 -527.559)
(-1000 -95.3077 -559.055)
(-1000 -95.3077 -543.307)
(1000 -95.3077 -511.811)
(-1000 -95.3077 -527.559)
(-1000 -95.3077 -511.811)
(1000 -95.3077 858.268)
(1000 -95.3077 842.52)
(1000 -95.3077 826.772)
(1000 -95.3077 811.024)
(1000 -95.3077 795.276)
(1000 -95.3077 779.528)
(1000 -95.3077 763.78)
(1000 -95.3077 748.031)
(1000 -95.3077 732.283)
(1000 -95.3077 716.535)
(1000 -95.3077 700.787)
(1000 -95.3077 685.039)
(1000 -95.3077 669.291)
(1000 -95.3077 653.543)
(1000 -95.3077 637.795)
(1000 -95.3077 622.047)
(1000 -95.3077 606.299)
(1000 -95.3077 590.551)
(1000 -95.3077 574.803)
(1000 -95.3077 559.055)
(1000 -95.3077 543.307)
(1000 -95.3077 527.559)
(1000 -95.3077 511.811)
(-1000 -95.3077 511.811)
(-1000 -95.3077 527.559)
(-1000 -95.3077 543.307)
(-1000 -95.3077 559.055)
(-1000 -95.3077 574.803)
(-1000 -95.3077 590.551)
(-1000 -95.3077 606.299)
(-1000 -95.3077 622.047)
(-1000 -95.3077 637.795)
(-1000 -95.3077 653.543)
(-1000 -95.3077 669.291)
(-1000 -95.3077 685.039)
(-1000 -95.3077 700.787)
(-1000 -95.3077 716.535)
(-1000 -95.3077 732.283)
(-1000 -95.3077 748.031)
(-1000 -95.3077 763.78)
(-1000 -95.3077 779.528)
(-1000 -95.3077 795.276)
(-1000 -95.3077 811.024)
(-1000 -95.3077 826.772)
(1000 -95.3077 874.016)
(1000 -95.3077 889.764)
(-1000 -95.3077 842.52)
(-1000 -95.3077 858.268)
(1000 -95.3077 905.512)
(1000 -95.3077 921.26)
(-1000 -95.3077 874.016)
(-1000 -95.3077 889.764)
(1000 -95.3077 937.008)
(1000 -95.3077 952.756)
(-1000 -95.3077 905.512)
(-1000 -95.3077 921.26)
(1000 -95.3077 968.504)
(1000 -95.3077 984.252)
(-1000 -95.3077 937.008)
(-1000 -95.3077 952.756)
(-574.803 -95.3077 1000)
(-559.055 -95.3077 1000)
(-543.307 -95.3077 1000)
(-527.559 -95.3077 1000)
(-511.811 -95.3077 1000)
(-496.063 -95.3077 1000)
(-480.315 -95.3077 1000)
(-464.567 -95.3077 1000)
(-448.819 -95.3077 1000)
(-433.071 -95.3077 1000)
(-417.323 -95.3077 1000)
(-401.575 -95.3077 1000)
(-385.827 -95.3077 1000)
(-370.079 -95.3077 1000)
(-354.331 -95.3077 1000)
(-338.583 -95.3077 1000)
(-322.835 -95.3077 1000)
(-307.087 -95.3077 1000)
(-291.339 -95.3077 1000)
(-275.591 -95.3077 1000)
(-259.843 -95.3077 1000)
(-244.094 -95.3077 1000)
(-228.346 -95.3077 1000)
(-212.598 -95.3077 1000)
(-196.85 -95.3077 1000)
(-181.102 -95.3077 1000)
(-165.354 -95.3077 1000)
(-149.606 -95.3077 1000)
(-133.858 -95.3077 1000)
(-118.11 -95.3077 1000)
(-102.362 -95.3077 1000)
(-86.6142 -95.3077 1000)
(-70.8661 -95.3077 1000)
(-55.1181 -95.3077 1000)
(-39.3701 -95.3077 1000)
(-23.622 -95.3077 1000)
(-7.87402 -95.3077 1000)
(7.87402 -95.3077 1000)
(23.622 -95.3077 1000)
(39.3701 -95.3077 1000)
(55.1181 -95.3077 1000)
(70.8661 -95.3077 1000)
(86.6142 -95.3077 1000)
(102.362 -95.3077 1000)
(118.11 -95.3077 1000)
(133.858 -95.3077 1000)
(149.606 -95.3077 1000)
(165.354 -95.3077 1000)
(181.102 -95.3077 1000)
(196.85 -95.3077 1000)
(212.598 -95.3077 1000)
(228.346 -95.3077 1000)
(244.094 -95.3077 1000)
(259.843 -95.3077 1000)
(275.591 -95.3077 1000)
(291.339 -95.3077 1000)
(307.087 -95.3077 1000)
(322.835 -95.3077 1000)
(338.583 -95.3077 1000)
(354.331 -95.3077 1000)
(370.079 -95.3077 1000)
(385.827 -95.3077 1000)
(401.575 -95.3077 1000)
(417.323 -95.3077 1000)
(433.071 -95.3077 1000)
(448.819 -95.3077 1000)
(464.567 -95.3077 1000)
(480.315 -95.3077 1000)
(496.063 -95.3077 1000)
(511.811 -95.3077 1000)
(527.559 -95.3077 1000)
(543.307 -95.3077 1000)
(559.055 -95.3077 1000)
(574.803 -95.3077 1000)
(590.551 -95.3077 1000)
(606.299 -95.3077 1000)
(622.047 -95.3077 1000)
(637.795 -95.3077 1000)
(653.543 -95.3077 1000)
(669.291 -95.3077 1000)
(685.039 -95.3077 1000)
(700.787 -95.3077 1000)
(716.535 -95.3077 1000)
(732.283 -95.3077 1000)
(748.031 -95.3077 1000)
(763.78 -95.3077 1000)
(779.528 -95.3077 1000)
(795.276 -95.3077 1000)
(811.024 -95.3077 1000)
(826.772 -95.3077 1000)
(842.52 -95.3077 1000)
(858.268 -95.3077 1000)
(874.016 -95.3077 1000)
(889.764 -95.3077 1000)
(905.512 -95.3077 1000)
(921.26 -95.3077 1000)
(937.008 -95.3077 1000)
(952.756 -95.3077 1000)
(968.504 -95.3077 1000)
(984.252 -95.3077 1000)
(-590.551 -95.3077 1000)
(-1000 -95.3077 968.504)
(-1000 -95.3077 984.252)
(-984.252 -95.3077 1000)
(-968.504 -95.3077 1000)
(-952.756 -95.3077 1000)
(-937.008 -95.3077 1000)
(-921.26 -95.3077 1000)
(-905.512 -95.3077 1000)
(-889.764 -95.3077 1000)
(-874.016 -95.3077 1000)
(-858.268 -95.3077 1000)
(-842.52 -95.3077 1000)
(-826.772 -95.3077 1000)
(-811.024 -95.3077 1000)
(-795.276 -95.3077 1000)
(-779.528 -95.3077 1000)
(-763.78 -95.3077 1000)
(-748.031 -95.3077 1000)
(-732.283 -95.3077 1000)
(-716.535 -95.3077 1000)
(-700.787 -95.3077 1000)
(-685.039 -95.3077 1000)
(-669.291 -95.3077 1000)
(-653.543 -95.3077 1000)
(-637.795 -95.3077 1000)
(-622.047 -95.3077 1000)
(-606.299 -95.3077 1000)
(-39.3701 -57.7443 149.606)
(-39.3701 -68.3247 133.858)
(-291.339 -37.6083 -401.575)
(-291.339 -47.8241 -417.323)
(-291.339 -34.8644 -385.827)
(-307.087 -39.9812 -401.575)
(-307.087 -31.4529 -385.827)
(-354.331 -58.9618 -401.575)
(-338.583 -45.4604 -385.827)
(-322.835 -26.1544 -370.079)
(-291.339 -32.3673 -370.079)
(-149.606 -63.6076 -354.331)
(-133.858 -67.7177 -354.331)
(-291.339 -31.4839 -354.331)
(-354.331 -58.3775 -354.331)
(-244.094 -36.2812 -338.583)
(-228.346 -48.0467 -354.331)
(-212.598 -49.2926 -338.583)
(-181.102 -56.4707 -322.835)
(-165.354 -59.0331 -322.835)
(-196.85 -56.2389 -322.835)
(-228.346 -68.0367 -212.598)
(-196.85 -67.7659 -212.598)
(-181.102 -71.4727 -212.598)
(-165.354 -74.7391 -196.85)
(-102.362 -68.1936 7.87402)
(-86.6142 -67.9622 7.87402)
(-23.622 -50.1942 181.102)
(-39.3701 -50.4703 165.354)
(7.87402 -48.1388 212.598)
(23.622 -58.0064 212.598)
(-7.87402 -42.2518 212.598)
(-7.87402 -47.6391 228.346)
(-39.3701 -52.3763 275.591)
(-39.3701 -54.5878 291.339)
(-118.11 -73.8986 275.591)
(-118.11 -68.9057 291.339)
(39.3701 -60.684 322.835)
(55.1181 -67.1551 322.835)
(-55.1181 -50.1964 338.583)
(23.622 -50.1906 354.331)
(39.3701 -58.2966 354.331)
(-86.6142 -48.1385 354.331)
(-244.094 -75.392 370.079)
(-228.346 -72.6152 370.079)
(-212.598 -69.022 370.079)
(-102.362 -37.2914 370.079)
(-7.87402 -32.8785 370.079)
(-7.87402 -41.1777 354.331)
(7.87402 -37.9142 370.079)
(7.87402 -43.3891 354.331)
(118.11 -69.8993 370.079)
(118.11 -71.8044 385.827)
(-149.606 -27.8696 370.079)
(-181.102 -42.848 401.575)
(-196.85 -63.4226 385.827)
(-165.354 -28.6526 401.575)
(-165.354 -33.7955 385.827)
(-133.858 -19.3 401.575)
(-149.606 -16.0866 417.323)
(-133.858 -14.8887 417.323)
(-165.354 -21.7793 417.323)
(-181.102 -40.0196 417.323)
(-86.6142 -8.68029 433.071)
(-70.8661 -7.69915 433.071)
(-39.3701 3.50004 433.071)
(-118.11 -4.32955 448.819)
(-133.858 -10.9679 464.567)
(-102.362 -2.68229 464.567)
(86.6142 -36.4733 464.567)
(133.858 -45.4271 496.063)
(86.6142 -2.93589 496.063)
(7.87402 43.3552 496.063)
(-149.606 -17.8202 496.063)
(-149.606 -20.5622 511.811)
(-70.8661 20.1858 511.811)
(70.8661 38.0861 511.811)
(70.8661 8.24124 496.063)
(102.362 -12.0981 511.811)
(118.11 -29.9497 511.811)
(39.3701 71.983 527.559)
(7.87402 66.2512 511.811)
(23.622 86.5866 527.559)
(-7.87402 75.3402 527.559)
(-23.622 60.1061 527.559)
(-39.3701 45.7018 527.559)
(-23.622 60.0396 543.307)
(-7.87402 74.7781 543.307)
(23.622 91.2845 543.307)
(39.3701 82.3112 543.307)
(7.87402 77.5162 559.055)
(-181.102 -7.75818 543.307)
(-181.102 -1.60031 559.055)
(-118.11 29.001 574.803)
(-102.362 40.8447 574.803)
(-86.6142 50.6977 574.803)
(-70.8661 60.808 574.803)
(-55.1181 61.4346 590.551)
(-86.6142 48.1855 590.551)
(-70.8661 54.3507 590.551)
(-102.362 40.014 590.551)
(-259.843 -37.6638 590.551)
(-244.094 -27.1625 590.551)
(-212.598 -24.4604 590.551)
(-149.606 7.05602 606.299)
(-133.858 18.4408 606.299)
(-118.11 25.5571 606.299)
(-55.1181 47.6705 606.299)
(-55.1181 28.4247 622.047)
(-259.843 -57.6488 -370.079)
(-259.843 -50.5459 -354.331)
(-338.583 -52.7741 -338.583)
(-322.835 -45.7275 -338.583)
(-307.087 -42.5876 -338.583)
(-244.094 -77.4596 -244.094)
(-228.346 -75.6546 -244.094)
(-212.598 -77.5625 -244.094)
(-196.85 -77.6991 -244.094)
(-39.3701 -61.5524 228.346)
(-86.6142 -80.5082 244.094)
(-86.6142 -79.6407 259.843)
(7.87402 -72.1646 291.339)
(23.622 -78.1313 291.339)
(-7.87402 -65.2741 291.339)
(-23.622 -57.3127 291.339)
(-7.87402 -47.8146 338.583)
(-55.1181 -54.4706 370.079)
(-39.3701 -47.0224 370.079)
(55.1181 -76.0791 370.079)
(55.1181 -69.4482 354.331)
(39.3701 -70.6256 385.827)
(-86.6142 -45.4359 385.827)
(-133.858 -28.7115 385.827)
(-118.11 -28.4723 385.827)
(-86.6142 -33.4038 401.575)
(39.3701 -67.1536 401.575)
(39.3701 -59.6006 417.323)
(7.87402 -40.0392 417.323)
(-55.1181 -23.9991 401.575)
(-86.6142 -18.5727 417.323)
(-149.606 -22.9133 433.071)
(-133.858 -17.5391 433.071)
(-7.87402 -17.1077 433.071)
(7.87402 -30.1019 433.071)
(-102.362 -7.9593 448.819)
(-244.094 -78.7867 464.567)
(-228.346 -76.2119 464.567)
(-55.1181 -8.48465 464.567)
(-7.87402 6.45546 464.567)
(-118.11 -26.2019 496.063)
(-165.354 -25.1284 511.811)
(-181.102 -35.3632 496.063)
(-102.362 -22.9563 511.811)
(133.858 -46.365 511.811)
(-102.362 -17.0621 527.559)
(70.8661 51.5178 543.307)
(-55.1181 37.4639 543.307)
(-149.606 2.5369 574.803)
(-149.606 -0.750718 559.055)
(-133.858 12.0856 574.803)
(-133.858 3.49133 559.055)
(-7.87402 47.1477 574.803)
(-149.606 3.78678 590.551)
(-196.85 -27.0562 606.299)
(-196.85 -23.0714 590.551)
(86.6142 -58.7837 637.795)
(102.362 -62.7337 637.795)
)


// edges:

977
(
(47 48)
(48 45)
(116 117)
(118 119)
(132 133)
(133 134)
(134 135)
(155 156)
(156 157)
(157 158)
(168 169)
(169 170)
(170 171)
(176 177)
(178 179)
(188 189)
(193 194)
(194 195)
(195 196)
(196 197)
(197 198)
(198 199)
(199 200)
(200 201)
(201 202)
(202 203)
(205 206)
(208 209)
(209 210)
(210 211)
(211 212)
(212 213)
(16 222)
(223 16)
(76 228)
(17 79)
(229 17)
(80 229)
(230 80)
(231 230)
(232 231)
(81 232)
(244 245)
(245 246)
(246 247)
(247 248)
(256 257)
(259 260)
(260 261)
(261 262)
(262 263)
(263 264)
(264 265)
(265 266)
(266 267)
(267 268)
(268 269)
(280 281)
(281 82)
(84 282)
(282 283)
(283 284)
(284 285)
(287 288)
(288 289)
(289 290)
(290 291)
(291 292)
(835 836)
(837 838)
(837 839)
(840 841)
(842 843)
(0 844)
(844 1)
(1 841)
(845 839)
(846 847)
(1 848)
(0 2)
(849 2)
(55 848)
(3 54)
(3 850)
(850 4)
(4 851)
(4 852)
(853 854)
(855 853)
(856 5)
(5 857)
(858 859)
(860 861)
(862 863)
(864 865)
(866 867)
(57 867)
(57 58)
(56 6)
(6 58)
(59 6)
(60 6)
(868 869)
(870 871)
(872 873)
(62 7)
(7 874)
(874 8)
(8 61)
(875 876)
(9 877)
(878 879)
(879 880)
(881 9)
(64 63)
(882 883)
(884 885)
(886 887)
(884 10)
(882 11)
(11 10)
(65 11)
(888 12)
(889 890)
(891 892)
(893 12)
(66 13)
(13 65)
(13 67)
(67 11)
(13 68)
(66 69)
(14 69)
(70 14)
(894 895)
(896 894)
(897 896)
(898 899)
(899 72)
(900 14)
(900 73)
(71 901)
(902 15)
(15 901)
(15 903)
(904 16)
(74 77)
(15 17)
(84 905)
(86 905)
(16 906)
(75 907)
(78 18)
(79 87)
(80 908)
(909 908)
(910 18)
(911 912)
(913 914)
(911 19)
(88 19)
(915 88)
(916 20)
(20 917)
(918 20)
(919 918)
(920 919)
(921 922)
(922 21)
(21 20)
(21 923)
(923 924)
(924 22)
(22 88)
(21 925)
(89 91)
(91 90)
(926 927)
(928 929)
(929 930)
(930 931)
(931 23)
(23 92)
(23 93)
(93 91)
(93 94)
(23 932)
(933 934)
(935 933)
(936 937)
(937 24)
(24 938)
(939 940)
(940 941)
(942 932)
(942 943)
(113 114)
(114 115)
(119 120)
(120 121)
(121 122)
(122 123)
(123 124)
(124 125)
(125 126)
(126 127)
(127 128)
(128 129)
(129 130)
(130 131)
(131 132)
(135 136)
(136 137)
(137 138)
(138 139)
(139 140)
(140 141)
(141 142)
(142 143)
(143 144)
(144 145)
(145 146)
(146 147)
(147 148)
(148 149)
(149 150)
(150 151)
(151 152)
(152 153)
(153 154)
(154 155)
(158 159)
(159 160)
(160 161)
(161 162)
(162 163)
(163 164)
(164 165)
(165 166)
(166 167)
(167 168)
(171 172)
(172 173)
(173 174)
(174 175)
(175 176)
(177 178)
(179 180)
(180 181)
(181 182)
(182 183)
(183 184)
(184 185)
(185 186)
(186 187)
(187 188)
(189 190)
(190 191)
(191 192)
(192 193)
(203 204)
(204 205)
(206 207)
(207 208)
(37 36)
(222 37)
(224 223)
(225 224)
(226 225)
(75 226)
(38 75)
(227 38)
(228 227)
(77 76)
(78 77)
(79 78)
(248 249)
(249 250)
(250 251)
(251 252)
(252 253)
(253 254)
(254 255)
(255 256)
(258 259)
(269 270)
(270 271)
(271 272)
(272 273)
(273 274)
(274 275)
(275 276)
(276 277)
(277 278)
(278 279)
(279 280)
(82 81)
(36 84)
(285 286)
(286 287)
(47 50)
(48 41)
(944 945)
(946 947)
(947 948)
(55 54)
(949 950)
(950 951)
(951 952)
(953 25)
(57 25)
(56 58)
(954 955)
(60 59)
(956 957)
(958 956)
(959 958)
(26 61)
(26 960)
(26 27)
(63 27)
(62 28)
(29 30)
(30 28)
(961 962)
(962 64)
(963 964)
(963 31)
(965 31)