/*--------------------------------*- C++ -*----------------------------------*\
  =========                 |
  \\      /  F ield         | OpenFOAM: The Open Source CFD Toolbox
   \\    /   O peration     | Website:  https://openfoam.org
    \\  /    A nd           | Version:  9
     \\/     M anipulation  |
\*---------------------------------------------------------------------------*/
FoamFile
{
    format      ascii;
    class       volScalarField;
    object      T;
}
// * * * * * * * * * * * * * * * * * * * * * * * * * * * * * * * * * * * * * //

dimensions      [0 0 0 1 0 0 0];

internalField   uniform 290;


boundaryField
{
    cold
    {
        type            fixedValue;
        value           uniform 290;
    }
    warm
    {
        type            fixedValue;
        value           uniform 300;
    }
    inlet
    {
        type            fixedValue;
        value           uniform 290;
    }
    outlet
    {
        type            fixedValue;
        value           uniform 290;
    }
    walls
    {
        type            fixedValue;
        value           uniform 290;
    }

    #includeEtc "caseDicts/setConstraintTypes"
}

// ************************************************************************* //
